Circuit: * C:\Users\leona\Desktop\qpcb\hardware\qpcb\simulation\MC34063AD_buck_boost\MC34063AD_testbench.asc

Questionable use of curly braces in "b§e_abmgate yint 0 v={if(v(a)>{{vthresh}},{{vss}},{{vdd}})}"
    Error: undefined symbol in: "if([v](a)>((vthresh)),((vss)),((vdd)))"
Questionable use of curly braces in "b§e_abmgate yint 0 v={if(v(a)>{{vthresh}}&v(b)>{{vthresh}},{{vdd}},{{vss}})}"
    Error: undefined symbol in: "if([v](a)>((vthresh))&v(b)>((vthresh)),((vdd)),((vss)))"
Questionable use of curly braces in "b§e_abmgate yint 0 v={if(v(a)>{{vthresh}},{{vdd}},{{vss}})}"
    Error: undefined symbol in: "if([v](a)>((vthresh)),((vdd)),((vss)))"
Questionable use of curly braces in "b§e_abmgate yint 0 v={if(v(a)>{{vthresh}},{{vdd}},{{vss}})}"
    Error: undefined symbol in: "if([v](a)>((vthresh)),((vdd)),((vss)))"
WARNING: Specified period is not longer than the sum of Trise, Tfall, and Ton for v1.  Increasing period to 1.001
Limiting fall time of source v1 to 1.9984e-016
Per .tran options, skipping operating point for transient analysis.
Ignoring empty pin current: Ix(u1:cii)
Ignoring empty pin current: Ix(u1:ipk)
Ignoring empty pin current: Ix(u1:vcc)
Heightened Def Con from 0.000657613 to 0.000657613
Heightened Def Con from 0.000661506 to 0.000661507
Heightened Def Con from 0.000665398 to 0.000665398
Heightened Def Con from 0.000669289 to 0.000669289
Heightened Def Con from 0.000677067 to 0.000677068
Heightened Def Con from 0.000684841 to 0.000684843
Heightened Def Con from 0.000700376 to 0.000700377
Heightened Def Con from 0.000704257 to 0.000704257
Heightened Def Con from 0.000708136 to 0.000708139
Heightened Def Con from 0.000715886 to 0.000715886
Heightened Def Con from 0.000719762 to 0.000719764
Heightened Def Con from 0.000723631 to 0.000723631
Heightened Def Con from 0.000727505 to 0.000727507
Heightened Def Con from 0.000731378 to 0.000731379
Heightened Def Con from 0.00073525 to 0.000735251
Heightened Def Con from 0.000750726 to 0.000750727
Heightened Def Con from 0.000754592 to 0.000754593
Heightened Def Con from 0.000758457 to 0.000758458
Heightened Def Con from 0.000766184 to 0.000766185
Heightened Def Con from 0.000770046 to 0.000770047
Heightened Def Con from 0.000777766 to 0.000777767
Heightened Def Con from 0.000781624 to 0.000781625
Heightened Def Con from 0.000835528 to 0.000835528
Heightened Def Con from 0.000847054 to 0.000847054
Heightened Def Con from 0.00087007 to 0.000870071
Heightened Def Con from 0.000885392 to 0.000885393
Heightened Def Con from 0.000908343 to 0.000908344
Heightened Def Con from 0.000912164 to 0.000912164
Heightened Def Con from 0.000927439 to 0.000927439
Heightened Def Con from 0.000931257 to 0.000931257
Heightened Def Con from 0.000935072 to 0.000935072
Heightened Def Con from 0.000942703 to 0.000942703
Heightened Def Con from 0.000946517 to 0.000946517
Heightened Def Con from 0.000950327 to 0.000950328
Heightened Def Con from 0.000954137 to 0.000954137
Heightened Def Con from 0.000957948 to 0.000957948
Heightened Def Con from 0.000961755 to 0.000961755
Heightened Def Con from 0.000965564 to 0.000965564
Heightened Def Con from 0.000969372 to 0.000969372
Heightened Def Con from 0.000973177 to 0.000973177
Heightened Def Con from 0.00097698 to 0.00097698
Heightened Def Con from 0.0009808 +to 0.000980802
Heightened Def Con from 0.000984604 to 0.000984605
Heightened Def Con from 0.000988406 to 0.00098841
Heightened Def Con from 0.000992208 +to 0.000992209
Heightened Def Con from 0.000996006 to 0.000996006
Heightened Def Con from 0.000999805 to 0.000999805
Heightened Def Con from 0.0010036 +to 0.0010036
Heightened Def Con from 0.0010074 to 0.0010074
Heightened Def Con from 0.00101117 to 0.00101118
Heightened Def Con from 0.00101492 to 0.00101492
Heightened Def Con from 0.00101867 to 0.00101867
Heightened Def Con from 0.00102241 +to 0.00102241
Heightened Def Con from 0.00102616 to 0.00102616
Heightened Def Con from 0.00102991 +to 0.00102991
Heightened Def Con from 0.00103365 to 0.00103365
Heightened Def Con from 0.0010374 ++to 0.0010374
Heightened Def Con from 0.00104115 to 0.00104115
Heightened Def Con from 0.00104489 to 0.00104489
Heightened Def Con from 0.00104864 to 0.00104864
Heightened Def Con from 0.00105239 +to 0.00105239
Heightened Def Con from 0.00105613 to 0.00105613
Heightened Def Con from 0.00105988 to 0.00105988
Heightened Def Con from 0.00106363 +to 0.00106363
Heightened Def Con from 0.00106737 to 0.00106737
Heightened Def Con from 0.00107112 ++++++++++++++to 0.00107112
Heightened Def Con from 0.00107487 +++++++++++to 0.00107487
Heightened Def Con from 0.00107862 ++++++to 0.00107862
Heightened Def Con from 0.00108236 +to 0.00108236
Heightened Def Con from 0.00108611 +to 0.00108611
Heightened Def Con from 0.00108986 ++++to 0.00108986
Heightened Def Con from 0.0010936 +to 0.00109361
Heightened Def Con from 0.00109735 +++++++++++++++++++to 0.00109735
Heightened Def Con from 0.0011011 +++++++++++++++++++to 0.0011011
Heightened Def Con from 0.00110485 to 0.00110485
Heightened Def Con from 0.00110859 to 0.00110859
Heightened Def Con from 0.00111234 to 0.00111234
Heightened Def Con from 0.00111608 to 0.00111608
Heightened Def Con from 0.00111983 to 0.00111983
Heightened Def Con from 0.00112358 to 0.00112358
Heightened Def Con from 0.00112733 to 0.00112733
Heightened Def Con from 0.00113107 +++++++++++++++++to 0.00113107
Heightened Def Con from 0.00113482 to 0.00113482
Heightened Def Con from 0.00113857 +to 0.00113857
Heightened Def Con from 0.00114231 +++++to 0.00114231
Heightened Def Con from 0.00114606 +++to 0.00114606
Heightened Def Con from 0.00114981 +++++++++++++to 0.00114981
Heightened Def Con from 0.00115355 +to 0.00115355
Heightened Def Con from 0.00115732 to 0.00115732
Heightened Def Con from 0.00116111 to 0.00116111
Heightened Def Con from 0.00116486 to 0.00116486
Heightened Def Con from 0.0011686 to 0.0011686
Heightened Def Con from 0.00117235 +++++++++++++++to 0.00117235
Heightened Def Con from 0.0011761 to 0.0011761
Heightened Def Con from 0.00117984 to 0.00117984
Heightened Def Con from 0.00118359 to 0.00118359
Heightened Def Con from 0.00118734 +to 0.00118734
Heightened Def Con from 0.00119108 to 0.00119108
Heightened Def Con from 0.00119483 +to 0.00119483
Heightened Def Con from 0.00119857 to 0.00119858
Heightened Def Con from 0.00120232 +to 0.00120232
Heightened Def Con from 0.00120607 ++++++++++++++to 0.00120607
Heightened Def Con from 0.00120982 ++++++++++++++++to 0.00120982
Heightened Def Con from 0.00121357 +++++++++++++++++++to 0.00121357
Heightened Def Con from 0.00121732 to 0.00121732
Heightened Def Con from 0.00122107 to 0.00122107
Heightened Def Con from 0.00122481 +++++++++++to 0.00122481
Heightened Def Con from 0.00122856 to 0.00122856
Heightened Def Con from 0.00123231 to 0.00123231
Heightened Def Con from 0.00123606 to 0.00123606
Heightened Def Con from 0.00123981 to 0.00123981
Heightened Def Con from 0.00124355 to 0.00124355
Heightened Def Con from 0.0012473 to 0.0012473
Heightened Def Con from 0.00125105 to 0.00125105
Heightened Def Con from 0.00125479 to 0.00125479
Heightened Def Con from 0.00125854 +++to 0.00125854
Heightened Def Con from 0.00126229 to 0.00126229
Heightened Def Con from 0.00126603 to 0.00126603
Heightened Def Con from 0.00126978 to 0.00126978
Heightened Def Con from 0.00126978 to 0.00126978
Heightened Def Con from 0.00127353 to 0.00127353
Heightened Def Con from 0.00127727 to 0.00127727
Heightened Def Con from 0.0012811 to 0.0012811
Heightened Def Con from 0.00128484 to 0.00128484
Heightened Def Con from 0.00128859 to 0.00128859
Heightened Def Con from 0.00129234 to 0.00129234
Heightened Def Con from 0.00129234 to 0.00129234
Heightened Def Con from 0.00129609 to 0.00129609
Heightened Def Con from 0.00129983 to 0.00129983
Heightened Def Con from 0.00130358 to 0.00130358
Heightened Def Con from 0.00130733 +to 0.00130733
Heightened Def Con from 0.00131107 +to 0.00131107
Heightened Def Con from 0.00131482 to 0.00131482
Heightened Def Con from 0.00131857 +to 0.00131857
Heightened Def Con from 0.00132232 to 0.00132232
Heightened Def Con from 0.00132606 to 0.00132606
Heightened Def Con from 0.00132981 +to 0.00132981
Heightened Def Con from 0.00133356 to 0.00133356
Heightened Def Con from 0.00133731 +to 0.00133731
Heightened Def Con from 0.00134105 +to 0.00134105
Heightened Def Con from 0.0013448 +to 0.0013448
Heightened Def Con from 0.00134855 to 0.00134855
Heightened Def Con from 0.0013523 to 0.0013523
Heightened Def Con from 0.00135604 to 0.00135604
Heightened Def Con from 0.00135979 to 0.00135979
Heightened Def Con from 0.00136354 to 0.00136354
Heightened Def Con from 0.00136728 to 0.00136728
Heightened Def Con from 0.00137103 to 0.00137103
Heightened Def Con from 0.00137478 to 0.00137478
Heightened Def Con from 0.00137852 to 0.00137852
Heightened Def Con from 0.00138227 to 0.00138227
Heightened Def Con from 0.00138602 to 0.00138602
Heightened Def Con from 0.00138976 to 0.00138976
Heightened Def Con from 0.00139351 to 0.00139351
Heightened Def Con from 0.00139726 to 0.00139726
Heightened Def Con from 0.00140101 +++++to 0.00140101
Heightened Def Con from 0.00140476 to 0.00140476
Heightened Def Con from 0.0014085 to 0.0014085
Heightened Def Con from 0.00141225 ++to 0.00141225
Heightened Def Con from 0.001416 to 0.001416
Heightened Def Con from 0.00141974 ++to 0.00141974
Heightened Def Con from 0.00142349 +to 0.00142349
Heightened Def Con from 0.00142724 +to 0.00142724
Heightened Def Con from 0.00143099 to 0.00143099
Heightened Def Con from 0.00143474 to 0.00143474
Heightened Def Con from 0.00143848 to 0.00143848
Heightened Def Con from 0.00144223 to 0.00144223
Heightened Def Con from 0.00144598 to 0.00144598
Heightened Def Con from 0.00144972 to 0.00144972
Heightened Def Con from 0.00145347 to 0.00145347
Heightened Def Con from 0.00145722 to 0.00145722
Heightened Def Con from 0.00146096 +to 0.00146097
Heightened Def Con from 0.00146471 to 0.00146471
Heightened Def Con from 0.00146846 +to 0.00146846
Heightened Def Con from 0.00147221 +to 0.00147221
Heightened Def Con from 0.00147596 to 0.00147596
Heightened Def Con from 0.00147971 to 0.00147971
Heightened Def Con from 0.00148346 ++++++++++++to 0.00148346
Heightened Def Con from 0.0014872 to 0.0014872
Heightened Def Con from 0.00149095 to 0.00149095
Heightened Def Con from 0.0014947 to 0.0014947
Heightened Def Con from 0.00149845 +to 0.00149845
Heightened Def Con from 0.0015022 +to 0.0015022
Heightened Def Con from 0.00150595 ++++++++++++++to 0.00150595
Heightened Def Con from 0.0015097 to 0.0015097
Heightened Def Con from 0.00151344 +to 0.00151344
Heightened Def Con from 0.00151719 +to 0.00151719
Heightened Def Con from 0.00152094 +to 0.00152094
Heightened Def Con from 0.00152468 to 0.00152469
Heightened Def Con from 0.00152843 to 0.00152843
Heightened Def Con from 0.00153218 ++to 0.00153218
Heightened Def Con from 0.00153593 to 0.00153593
Heightened Def Con from 0.00153967 ++++to 0.00153967
Heightened Def Con from 0.00154342 to 0.00154342
Heightened Def Con from 0.00154717 to 0.00154717
Heightened Def Con from 0.00155091 to 0.00155091
Heightened Def Con from 0.00155466 to 0.00155466
Heightened Def Con from 0.00155841 to 0.00155841
Heightened Def Con from 0.00156216 +to 0.00156216
Heightened Def Con from 0.00156591 to 0.00156591
Heightened Def Con from 0.00156965 +++++++++++++++to 0.00156965
Heightened Def Con from 0.0015734 to 0.0015734
Heightened Def Con from 0.00157715 +to 0.00157715
Heightened Def Con from 0.0015809 to 0.0015809
Heightened Def Con from 0.00158465 +to 0.00158465
Heightened Def Con from 0.00158839 +to 0.00158839
Heightened Def Con from 0.00159214 to 0.00159214
Heightened Def Con from 0.00159589 +to 0.00159589
Heightened Def Con from 0.00159963 +to 0.00159963
Heightened Def Con from 0.00160338 to 0.00160338
Heightened Def Con from 0.00160713 +++++to 0.00160713
Heightened Def Con from 0.00161088 to 0.00161088
Heightened Def Con from 0.00161462 to 0.00161462
Heightened Def Con from 0.00161837 +to 0.00161837
Heightened Def Con from 0.00162212 to 0.00162212
Heightened Def Con from 0.00162587 to 0.00162587
Heightened Def Con from 0.00162962 +to 0.00162962
Heightened Def Con from 0.00163336 +to 0.00163336
Heightened Def Con from 0.00163711 +to 0.00163711
Heightened Def Con from 0.00164086 to 0.00164086
Heightened Def Con from 0.00164461 to 0.00164461
Heightened Def Con from 0.00164835 to 0.00164835
Heightened Def Con from 0.0016521 to 0.0016521
Heightened Def Con from 0.00165585 to 0.00165585
Heightened Def Con from 0.00165959 +to 0.00165959
Heightened Def Con from 0.00166334 to 0.00166334
Heightened Def Con from 0.00166709 +to 0.00166709
Heightened Def Con from 0.00167084 +++++++to 0.00167084
Heightened Def Con from 0.00167458 to 0.00167458
Heightened Def Con from 0.00167833 to 0.00167833
Heightened Def Con from 0.00168208 +to 0.00168208
Heightened Def Con from 0.00168582 +++++to 0.00168582
Heightened Def Con from 0.00168957 ++to 0.00168957
Heightened Def Con from 0.00169332 +to 0.00169332
Heightened Def Con from 0.00169707 to 0.00169707
Heightened Def Con from 0.00170081 +++++to 0.00170081
Heightened Def Con from 0.00170456 to 0.00170456
Heightened Def Con from 0.00170831 +to 0.00170831
Heightened Def Con from 0.00171206 to 0.00171206
Heightened Def Con from 0.0017158 to 0.0017158
Heightened Def Con from 0.00171955 ++to 0.00171955
Heightened Def Con from 0.0017233 to 0.0017233
Heightened Def Con from 0.00172705 +++++++to 0.00172705
Heightened Def Con from 0.00173079 to 0.00173079
Heightened Def Con from 0.00173454 to 0.00173454
Heightened Def Con from 0.00173829 to 0.00173829
Heightened Def Con from 0.00174204 ++++++++++to 0.00174204
Heightened Def Con from 0.00174578 +++to 0.00174578
Heightened Def Con from 0.00174953 +++++++++++++to 0.00174953
Heightened Def Con from 0.00175328 ++++++++to 0.00175328
Heightened Def Con from 0.00175703 +++++++++++to 0.00175703
Heightened Def Con from 0.00176078 ++++to 0.00176078
Heightened Def Con from 0.00176452 to 0.00176452
Heightened Def Con from 0.00176827 +to 0.00176827
Heightened Def Con from 0.00177202 to 0.00177202
Heightened Def Con from 0.00177576 +to 0.00177576
Heightened Def Con from 0.00177951 +++to 0.00177951
Heightened Def Con from 0.00178326 to 0.00178326
Heightened Def Con from 0.00178701 to 0.00178701
Heightened Def Con from 0.00179075 to 0.00179076
Heightened Def Con from 0.0017945 to 0.0017945
Heightened Def Con from 0.00179825 +++to 0.00179825
Heightened Def Con from 0.001802 +to 0.001802
Heightened Def Con from 0.00180575 to 0.00180575
Heightened Def Con from 0.00180964 ++to 0.00180964
Heightened Def Con from 0.00181339 to 0.00181339
Heightened Def Con from 0.00181713 +to 0.00181714
Heightened Def Con from 0.00182088 +to 0.00182088
Heightened Def Con from 0.00182463 to 0.00182463
Heightened Def Con from 0.00182838 +to 0.00182838
Heightened Def Con from 0.00183213 to 0.00183213
Heightened Def Con from 0.00183588 to 0.00183588
Heightened Def Con from 0.00183963 to 0.00183963
Heightened Def Con from 0.00184338 ++to 0.00184338
Heightened Def Con from 0.00184713 +to 0.00184713
Heightened Def Con from 0.00185087 to 0.00185088
Heightened Def Con from 0.00185462 +to 0.00185463
Heightened Def Con from 0.00185837 to 0.00185837
Heightened Def Con from 0.00186212 to 0.00186212
Heightened Def Con from 0.00186587 +++++++++++to 0.00186587
Heightened Def Con from 0.00186962 to 0.00186962
Heightened Def Con from 0.00187337 to 0.00187337
Heightened Def Con from 0.00187711 to 0.00187711
Heightened Def Con from 0.00188086 to 0.00188086
Heightened Def Con from 0.00188461 to 0.00188461
Heightened Def Con from 0.00188836 to 0.00188836
Heightened Def Con from 0.0018921 to 0.0018921
Heightened Def Con from 0.00189585 to 0.00189585
Heightened Def Con from 0.0018996 to 0.0018996
Heightened Def Con from 0.00190335 +to 0.00190335
Heightened Def Con from 0.0019071 to 0.0019071
Heightened Def Con from 0.00191084 to 0.00191084
Heightened Def Con from 0.00191459 to 0.00191459
Heightened Def Con from 0.00191834 to 0.00191834
Heightened Def Con from 0.00192208 to 0.00192208
Heightened Def Con from 0.00192583 to 0.00192583
Heightened Def Con from 0.00192958 to 0.00192958
Heightened Def Con from 0.00193333 to 0.00193333
Heightened Def Con from 0.00193707 +to 0.00193707
Heightened Def Con from 0.00194082 to 0.00194082
Heightened Def Con from 0.00194457 to 0.00194457
Heightened Def Con from 0.00194832 to 0.00194832
Heightened Def Con from 0.00195206 to 0.00195206
Heightened Def Con from 0.00195581 to 0.00195581
Heightened Def Con from 0.00195956 to 0.00195956
Heightened Def Con from 0.00196331 to 0.00196331
Heightened Def Con from 0.00196706 to 0.00196706
Heightened Def Con from 0.0019708 to 0.0019708
Heightened Def Con from 0.00197455 +to 0.00197455
Heightened Def Con from 0.0019783 to 0.0019783
Heightened Def Con from 0.00198205 to 0.00198205
Heightened Def Con from 0.0019858 to 0.0019858
Heightened Def Con from 0.00198955 to 0.00198955
Heightened Def Con from 0.0019933 +to 0.0019933
Heightened Def Con from 0.00199705 to 0.00199705
Heightened Def Con from 0.0020008 to 0.0020008
Heightened Def Con from 0.00200454 to 0.00200455
Heightened Def Con from 0.00200829 to 0.00200829
Heightened Def Con from 0.00201204 to 0.00201204
Heightened Def Con from 0.00201578 to 0.00201578
Heightened Def Con from 0.00201953 to 0.00201953
Heightened Def Con from 0.00202328 to 0.00202328
Heightened Def Con from 0.00202703 to 0.00202703
Heightened Def Con from 0.00203078 to 0.00203078
Heightened Def Con from 0.00203452 to 0.00203452
Heightened Def Con from 0.00203827 to 0.00203827
Heightened Def Con from 0.00204202 +to 0.00204202
Heightened Def Con from 0.00204577 ++++++++++++++to 0.00204577
Heightened Def Con from 0.00204952 ++to 0.00204952
Heightened Def Con from 0.00205327 +++++++++++to 0.00205327
Heightened Def Con from 0.00205701 ++++++++++to 0.00205701
Heightened Def Con from 0.00206076 to 0.00206076
Heightened Def Con from 0.00206451 +++++++++to 0.00206451
Heightened Def Con from 0.00206826 +to 0.00206826
Heightened Def Con from 0.002072 to 0.002072
Heightened Def Con from 0.00207575 to 0.00207575
Heightened Def Con from 0.0020795 to 0.0020795
Heightened Def Con from 0.00208325 +++++++++to 0.00208325
Heightened Def Con from 0.002087 to 0.002087
Heightened Def Con from 0.00209074 to 0.00209075
Heightened Def Con from 0.00209449 +to 0.00209449
Heightened Def Con from 0.00209824 to 0.00209824
Heightened Def Con from 0.00210199 to 0.00210199
Heightened Def Con from 0.00210574 to 0.00210574
Heightened Def Con from 0.00210948 to 0.00210948
Heightened Def Con from 0.00211323 +to 0.00211323
Heightened Def Con from 0.00211702 ++to 0.00211702
Heightened Def Con from 0.00212076 to 0.00212076
Heightened Def Con from 0.00212451 to 0.00212451
Heightened Def Con from 0.00212826 to 0.00212826
Heightened Def Con from 0.00213201 to 0.00213201
Heightened Def Con from 0.00213576 to 0.00213576
Heightened Def Con from 0.0021395 ++++++to 0.0021395
Heightened Def Con from 0.00214325 to 0.00214325
Heightened Def Con from 0.002147 to 0.002147
Heightened Def Con from 0.00215074 to 0.00215074
Heightened Def Con from 0.00215449 to 0.00215449
Heightened Def Con from 0.00215824 to 0.00215824
Heightened Def Con from 0.00216161 to 0.00216161
Heightened Def Con from 0.00216536 to 0.00216536
Heightened Def Con from 0.0021691 to 0.0021691
Heightened Def Con from 0.00217285 to 0.00217285
Heightened Def Con from 0.0021766 to 0.0021766
Heightened Def Con from 0.00218035 to 0.00218035
Heightened Def Con from 0.00218409 to 0.00218409
Heightened Def Con from 0.00218784 to 0.00218784
Heightened Def Con from 0.00219159 to 0.00219159
Heightened Def Con from 0.00219533 to 0.00219533
Heightened Def Con from 0.00219908 to 0.00219908
Heightened Def Con from 0.00220283 to 0.00220283
Heightened Def Con from 0.00220658 to 0.00220658
Heightened Def Con from 0.00221032 to 0.00221032
Heightened Def Con from 0.00221407 to 0.00221407
Heightened Def Con from 0.00221782 to 0.00221782
Heightened Def Con from 0.00222156 to 0.00222156
Heightened Def Con from 0.00222531 to 0.00222531
Heightened Def Con from 0.00222906 to 0.00222906
Heightened Def Con from 0.00223281 to 0.00223281
Heightened Def Con from 0.00223655 to 0.00223655
Heightened Def Con from 0.0022403 to 0.0022403
Heightened Def Con from 0.00224405 to 0.00224405
Heightened Def Con from 0.00224779 to 0.0022478
Heightened Def Con from 0.00225154 to 0.00225154
Heightened Def Con from 0.00225529 to 0.00225529
Heightened Def Con from 0.00225904 to 0.00225904
Heightened Def Con from 0.00226279 to 0.00226279
Heightened Def Con from 0.00226653 to 0.00226653
Heightened Def Con from 0.00227028 +to 0.00227028
Heightened Def Con from 0.00227403 to 0.00227403
Heightened Def Con from 0.00227777 to 0.00227777
Heightened Def Con from 0.00228152 to 0.00228152
Heightened Def Con from 0.00228152 to 0.00228152
Heightened Def Con from 0.00228527 to 0.00228527
Heightened Def Con from 0.00228901 to 0.00228901
Heightened Def Con from 0.00229276 to 0.00229276
Heightened Def Con from 0.00229651 to 0.00229651
Heightened Def Con from 0.00230026 to 0.00230026
Heightened Def Con from 0.002304 to 0.002304
Heightened Def Con from 0.00230775 to 0.00230775
Heightened Def Con from 0.0023115 to 0.0023115
Heightened Def Con from 0.00231524 to 0.00231524
Heightened Def Con from 0.00231899 to 0.00231899
Heightened Def Con from 0.00232274 to 0.00232274
Heightened Def Con from 0.00232649 to 0.00232649
Heightened Def Con from 0.00233023 to 0.00233023
Heightened Def Con from 0.00233398 to 0.00233398
Heightened Def Con from 0.00233773 to 0.00233773
Heightened Def Con from 0.00234147 to 0.00234147
Heightened Def Con from 0.00234522 to 0.00234522
Heightened Def Con from 0.00234897 to 0.00234897
Heightened Def Con from 0.00235272 to 0.00235272
Heightened Def Con from 0.00235646 to 0.00235646
Heightened Def Con from 0.00236021 to 0.00236021
Heightened Def Con from 0.00236396 to 0.00236396
Heightened Def Con from 0.0023677 to 0.0023677
Heightened Def Con from 0.00237145 to 0.00237145
Heightened Def Con from 0.0023752 to 0.0023752
Heightened Def Con from 0.00237895 to 0.00237895
Heightened Def Con from 0.00238269 to 0.00238269
Heightened Def Con from 0.00238644 to 0.00238644
Heightened Def Con from 0.00239019 to 0.00239019
Heightened Def Con from 0.00239393 to 0.00239393
Heightened Def Con from 0.00239768 to 0.00239768
Heightened Def Con from 0.00240143 to 0.00240143
Heightened Def Con from 0.00240518 to 0.00240518
Heightened Def Con from 0.00240892 to 0.00240892
Heightened Def Con from 0.00241267 to 0.00241267
Heightened Def Con from 0.00241642 +to 0.00241642
Heightened Def Con from 0.00242016 to 0.00242016
Heightened Def Con from 0.00242391 to 0.00242391
Heightened Def Con from 0.00242766 to 0.00242766
Heightened Def Con from 0.00243141 +to 0.00243141
Heightened Def Con from 0.00243515 to 0.00243515
Heightened Def Con from 0.0024389 to 0.0024389
Heightened Def Con from 0.00244265 to 0.00244265
Heightened Def Con from 0.0024464 +to 0.0024464
Heightened Def Con from 0.00245014 to 0.00245014
Heightened Def Con from 0.00245389 to 0.00245389
Heightened Def Con from 0.00245764 to 0.00245764
Heightened Def Con from 0.00246139 to 0.00246139
Heightened Def Con from 0.00246514 to 0.00246514
Heightened Def Con from 0.00246888 to 0.00246888
Heightened Def Con from 0.00247263 to 0.00247263
Heightened Def Con from 0.00247638 to 0.00247638
Heightened Def Con from 0.00248013 to 0.00248013
Heightened Def Con from 0.00248387 to 0.00248387
Heightened Def Con from 0.00248762 to 0.00248762
Heightened Def Con from 0.00249137 to 0.00249137
Heightened Def Con from 0.00249511 to 0.00249511
Heightened Def Con from 0.00249886 to 0.00249886
Heightened Def Con from 0.00250261 to 0.00250261
Heightened Def Con from 0.00250636 to 0.00250636
Heightened Def Con from 0.0025101 to 0.0025101
Heightened Def Con from 0.00251385 to 0.00251385
Heightened Def Con from 0.0025176 to 0.0025176
Heightened Def Con from 0.00252134 to 0.00252134
Heightened Def Con from 0.00252509 to 0.00252509
Heightened Def Con from 0.00252884 to 0.00252884
Heightened Def Con from 0.00253259 to 0.00253259
Heightened Def Con from 0.00253633 to 0.00253633
Heightened Def Con from 0.00254008 to 0.00254008
Heightened Def Con from 0.00254383 to 0.00254383
Heightened Def Con from 0.00254757 to 0.00254757
Heightened Def Con from 0.00255132 to 0.00255132
Heightened Def Con from 0.00255507 to 0.00255507
Heightened Def Con from 0.00255882 to 0.00255882
Heightened Def Con from 0.00256256 to 0.00256256
Heightened Def Con from 0.00256631 to 0.00256631
Heightened Def Con from 0.00257006 to 0.00257006
Heightened Def Con from 0.0025738 to 0.0025738
Heightened Def Con from 0.00257755 to 0.00257755
Heightened Def Con from 0.0025813 to 0.0025813
Heightened Def Con from 0.00258505 to 0.00258505
Heightened Def Con from 0.00258879 to 0.00258879
Heightened Def Con from 0.00259254 to 0.00259254
Heightened Def Con from 0.00259254 to 0.00259254
Heightened Def Con from 0.00259629 to 0.00259629
Heightened Def Con from 0.00260004 to 0.00260004
Heightened Def Con from 0.00260379 to 0.00260379
Heightened Def Con from 0.00260753 to 0.00260753
Heightened Def Con from 0.00261128 to 0.00261128
Heightened Def Con from 0.00261503 to 0.00261503
Heightened Def Con from 0.00261878 to 0.00261878
Heightened Def Con from 0.00262253 to 0.00262253
Heightened Def Con from 0.00262627 to 0.00262628
Heightened Def Con from 0.00263002 to 0.00263002
Heightened Def Con from 0.00263377 to 0.00263377
Heightened Def Con from 0.00263752 to 0.00263752
Heightened Def Con from 0.00264126 to 0.00264126
Heightened Def Con from 0.00264501 to 0.00264501
Heightened Def Con from 0.00264876 to 0.00264876
Heightened Def Con from 0.0026525 to 0.00265251
Heightened Def Con from 0.00265625 to 0.00265625
Heightened Def Con from 0.00266 to 0.00266
Heightened Def Con from 0.00266375 to 0.00266375
Heightened Def Con from 0.00266749 to 0.00266749
Heightened Def Con from 0.00267124 to 0.00267124
Heightened Def Con from 0.00267499 to 0.00267499
Heightened Def Con from 0.00267873 to 0.00267874
Heightened Def Con from 0.00268248 to 0.00268248
Heightened Def Con from 0.00268623 to 0.00268623
Heightened Def Con from 0.00268998 to 0.00268998
Heightened Def Con from 0.00269372 to 0.00269372
Heightened Def Con from 0.00269747 to 0.00269747
Heightened Def Con from 0.00270122 to 0.00270122
Heightened Def Con from 0.00270496 to 0.00270496
Heightened Def Con from 0.00270871 to 0.00270871
Heightened Def Con from 0.00271246 to 0.00271246
Heightened Def Con from 0.0027162 to 0.00271621
Heightened Def Con from 0.00271995 to 0.00271995
Heightened Def Con from 0.0027237 to 0.0027237
Heightened Def Con from 0.00272745 to 0.00272745
Heightened Def Con from 0.0027312 to 0.0027312
Heightened Def Con from 0.00273495 to 0.00273495
Heightened Def Con from 0.00273869 to 0.0027387
Heightened Def Con from 0.00274244 to 0.00274244
Heightened Def Con from 0.00274619 to 0.00274619
Heightened Def Con from 0.00274993 to 0.00274993
Heightened Def Con from 0.00275368 to 0.00275368
Heightened Def Con from 0.00275743 to 0.00275743
Heightened Def Con from 0.00276118 to 0.00276118
Heightened Def Con from 0.00276493 to 0.00276493
Heightened Def Con from 0.00276867 to 0.00276867
Heightened Def Con from 0.00277242 to 0.00277242
Heightened Def Con from 0.00277617 to 0.00277617
Heightened Def Con from 0.00277991 to 0.00277991
Heightened Def Con from 0.00278366 to 0.00278366
Heightened Def Con from 0.00278741 to 0.00278741
Heightened Def Con from 0.00279116 to 0.00279116
Heightened Def Con from 0.0027949 to 0.0027949
Heightened Def Con from 0.00279865 +to 0.00279865
Heightened Def Con from 0.0028024 +to 0.0028024
Heightened Def Con from 0.00280615 to 0.00280615
Heightened Def Con from 0.00280989 +++to 0.00280989
Heightened Def Con from 0.00281364 +to 0.00281364
Heightened Def Con from 0.00281739 to 0.00281739
Heightened Def Con from 0.00282113 to 0.00282113
Heightened Def Con from 0.00282488 to 0.00282488
Heightened Def Con from 0.00282863 +to 0.00282863
Heightened Def Con from 0.00283238 to 0.00283238
Heightened Def Con from 0.00283612 to 0.00283612
Heightened Def Con from 0.00283987 to 0.00283987
Heightened Def Con from 0.00284362 to 0.00284362
Heightened Def Con from 0.00284736 to 0.00284736
Heightened Def Con from 0.00285111 to 0.00285111
Heightened Def Con from 0.00285486 +to 0.00285486
Heightened Def Con from 0.00285861 to 0.00285861
Heightened Def Con from 0.00286235 +to 0.00286235
Heightened Def Con from 0.0028661 to 0.0028661
Heightened Def Con from 0.00286985 ++++++++++++to 0.00286985
Heightened Def Con from 0.00287359 to 0.00287359
Heightened Def Con from 0.00287734 to 0.00287734
Heightened Def Con from 0.00288109 to 0.00288109
Heightened Def Con from 0.00288484 to 0.00288484
Heightened Def Con from 0.00288859 +++++++++++to 0.00288859
Heightened Def Con from 0.00289234 ++++++++++to 0.00289234
Heightened Def Con from 0.00289609 +to 0.00289609
Heightened Def Con from 0.00289984 +to 0.00289984
Heightened Def Con from 0.00290358 to 0.00290358
Heightened Def Con from 0.00290733 to 0.00290733
Heightened Def Con from 0.00291108 to 0.00291108
Heightened Def Con from 0.00291483 to 0.00291483
Heightened Def Con from 0.00291858 +to 0.00291858
Heightened Def Con from 0.00292232 to 0.00292232
Heightened Def Con from 0.00292607 to 0.00292607
Heightened Def Con from 0.00292982 +to 0.00292982
Heightened Def Con from 0.00293357 to 0.00293357
Heightened Def Con from 0.00293732 +++to 0.00293732
Heightened Def Con from 0.00294107 to 0.00294107
Heightened Def Con from 0.00294482 +to 0.00294482
Heightened Def Con from 0.00294856 to 0.00294856
Heightened Def Con from 0.00295231 ++++to 0.00295231
Heightened Def Con from 0.00295606 +to 0.00295606
Heightened Def Con from 0.00295981 to 0.00295981
Heightened Def Con from 0.00296356 +to 0.00296356
Heightened Def Con from 0.0029673 +to 0.0029673
Heightened Def Con from 0.00297105 to 0.00297105
Heightened Def Con from 0.0029748 +++++to 0.0029748
Heightened Def Con from 0.00297855 ++to 0.00297855
Heightened Def Con from 0.00298231 +to 0.00298231
Heightened Def Con from 0.00298606 +++++to 0.00298606
Heightened Def Con from 0.0029898 ++++++++++to 0.0029898
Heightened Def Con from 0.00299355 to 0.00299355
Heightened Def Con from 0.0029973 to 0.0029973
Heightened Def Con from 0.00300105 to 0.00300105
Heightened Def Con from 0.0030048 ++++to 0.0030048
Heightened Def Con from 0.00300855 to 0.00300855
Heightened Def Con from 0.0030123 to 0.0030123
Heightened Def Con from 0.00301605 to 0.00301605
Heightened Def Con from 0.0030198 to 0.0030198
Heightened Def Con from 0.00302355 to 0.00302355
Heightened Def Con from 0.0030273 to 0.0030273
Heightened Def Con from 0.00303105 to 0.00303105
Heightened Def Con from 0.00303479 to 0.00303479
Heightened Def Con from 0.00303854 to 0.00303854
Heightened Def Con from 0.00304229 to 0.00304229
Heightened Def Con from 0.00304604 to 0.00304604
Heightened Def Con from 0.00304979 to 0.00304979
Heightened Def Con from 0.00305353 to 0.00305353
Heightened Def Con from 0.00305728 to 0.00305728
Heightened Def Con from 0.00306103 to 0.00306103
Heightened Def Con from 0.00306478 to 0.00306478
Heightened Def Con from 0.00306853 to 0.00306853
Heightened Def Con from 0.00307228 to 0.00307228
Heightened Def Con from 0.00307603 to 0.00307603
Heightened Def Con from 0.00307977 to 0.00307977
Heightened Def Con from 0.00308354 to 0.00308354
Heightened Def Con from 0.00308729 to 0.00308729
Heightened Def Con from 0.00309104 to 0.00309104
Heightened Def Con from 0.00309478 to 0.00309478
Heightened Def Con from 0.00309853 to 0.00309853
Heightened Def Con from 0.00310228 to 0.00310228
Heightened Def Con from 0.00310603 +++++++++++to 0.00310603
Heightened Def Con from 0.00310978 to 0.00310978
Heightened Def Con from 0.00311353 +++++to 0.00311353
Heightened Def Con from 0.00311728 to 0.00311728
Heightened Def Con from 0.00312103 +to 0.00312103
Heightened Def Con from 0.00312477 to 0.00312477
Heightened Def Con from 0.00312852 to 0.00312852
Heightened Def Con from 0.00313227 to 0.00313227
Heightened Def Con from 0.00313602 to 0.00313602
Heightened Def Con from 0.00313977 to 0.00313977
Heightened Def Con from 0.00314352 to 0.00314352
Heightened Def Con from 0.00314727 to 0.00314727
Heightened Def Con from 0.00315102 to 0.00315102
Heightened Def Con from 0.00315477 +to 0.00315477
Heightened Def Con from 0.00315851 +++to 0.00315852
Heightened Def Con from 0.00316226 to 0.00316226
Heightened Def Con from 0.00316601 to 0.00316601
Heightened Def Con from 0.00316976 to 0.00316976
Heightened Def Con from 0.00317351 ++to 0.00317351
Heightened Def Con from 0.00317726 ++++++++++to 0.00317726
Heightened Def Con from 0.00318101 to 0.00318101
Heightened Def Con from 0.00318476 to 0.00318476
Heightened Def Con from 0.00318851 to 0.00318851
Heightened Def Con from 0.00319226 to 0.00319226
Heightened Def Con from 0.003196 ++++++++to 0.003196
Heightened Def Con from 0.00319975 to 0.00319975
Heightened Def Con from 0.0032035 to 0.0032035
Heightened Def Con from 0.00320725 to 0.00320725
Heightened Def Con from 0.003211 to 0.003211
Heightened Def Con from 0.00321475 +to 0.00321475
Heightened Def Con from 0.0032185 ++++++++++++to 0.0032185
Heightened Def Con from 0.00322224 ++++++++++++to 0.00322224
Heightened Def Con from 0.00322599 ++++++++++++to 0.00322599
Heightened Def Con from 0.00322974 to 0.00322974
Heightened Def Con from 0.00323348 to 0.00323348
Heightened Def Con from 0.00323723 to 0.00323723
Heightened Def Con from 0.00324098 to 0.00324098
Heightened Def Con from 0.00324473 ++++++++++to 0.00324473
Heightened Def Con from 0.00324847 +++++++++to 0.00324847
Heightened Def Con from 0.00325222 to 0.00325222
Heightened Def Con from 0.00325597 to 0.00325597
Heightened Def Con from 0.00325971 to 0.00325971
Heightened Def Con from 0.00325971 to 0.00325972
Heightened Def Con from 0.00326346 to 0.00326346
Heightened Def Con from 0.00326721 to 0.00326721
Heightened Def Con from 0.00327096 to 0.00327096
Heightened Def Con from 0.0032747 to 0.0032747
Heightened Def Con from 0.00327845 to 0.00327845
Heightened Def Con from 0.0032822 to 0.0032822
Heightened Def Con from 0.00328594 to 0.00328594
Heightened Def Con from 0.00328969 to 0.00328969
Heightened Def Con from 0.00329344 to 0.00329344
Heightened Def Con from 0.00329719 to 0.00329719
Heightened Def Con from 0.00330093 +++to 0.00330093
Heightened Def Con from 0.00330468 +++++++to 0.00330468
Heightened Def Con from 0.00330843 to 0.00330843
Heightened Def Con from 0.00331218 to 0.00331218
Heightened Def Con from 0.00331592 to 0.00331592
Heightened Def Con from 0.00331967 to 0.00331967
Heightened Def Con from 0.00332342 to 0.00332342
Heightened Def Con from 0.00332717 +to 0.00332717
Heightened Def Con from 0.00333091 ++++++++to 0.00333092
Heightened Def Con from 0.00333466 to 0.00333466
Heightened Def Con from 0.00333841 to 0.00333841
Heightened Def Con from 0.00334216 to 0.00334216
Heightened Def Con from 0.00334591 to 0.00334591
Heightened Def Con from 0.00334966 to 0.00334966
Heightened Def Con from 0.0033534 to 0.0033534
Heightened Def Con from 0.00335715 +to 0.00335715

Date: Tue Apr 08 22:42:49 2025
Total elapsed time: 31.981 seconds.

tnom = 27
temp = 27
method = modified trap
totiter = 2088980
traniter = 2088980
tranpoints = 674999
accept = 513178
rejected = 163183
matrix size = 86
fillins = 48
solver = Normal
Matrix Compiler1: 4.92 KB object code size  1.2/0.6/[0.3]
Matrix Compiler2:     528 opcodes  5.9/[1.0]/1.1

